/*--------------------------------*- C++ -*----------------------------------*\
| =========                 |                                                 |
| \\      /  F ield         | OpenFOAM: The Open Source CFD Toolbox           |
|  \\    /   O peration     | Version:  v2212                                 |
|   \\  /    A nd           | Website:  www.openfoam.com                      |
|    \\/     M anipulation  |                                                 |
\*---------------------------------------------------------------------------*/
FoamFile
{
    version     2.0;
    format      ascii;
    class       pointScalarField;
    object      pointMotionUx;
}
// * * * * * * * * * * * * * * * * * * * * * * * * * * * * * * * * * * * * * //

dimensions      [0 1 -1 0 0 0 0];

internalField   uniform 0;

boundaryField
{
    front
    {
        type empty;
    }

    back
    {
        type empty;
    }

    bottom
    {
        type            uniformFixedValue;
        uniformValue    constant 0;
    }

    inlet
    {
        type            uniformFixedValue;
        uniformValue    constant 0;
    }

   outlet
    {
        type            uniformFixedValue;
        uniformValue    constant 0;
    }

    leftside
    {
        type            slip;
    }

    rightside
    {
        type            slip;
    }

    movingWall
    {
        type            uniformFixedValue;
        uniformValue    constant 1;
    }

    // org
    /*
    movingWall
    {
        type            uniformFixedValue;
        uniformValue    constant 1;
    }

    farFieldMoving
    {
        type            slip;
    }

    fixedWall
    {
        type            uniformFixedValue;
        uniformValue    constant 0;
    }

    left
    {
        type            uniformFixedValue;
        uniformValue    constant 0;
    }

    farField
    {
        type            slip;
    }

    back
    {
        type            wedge;
    }

    front
    {
        type            wedge;
    }
    */
}


// ************************************************************************* //
